**** Created by MC2: Version 2013.12.00.f on 2020/05/11, 12:57:43 

************************************************************************
* auCdl Netlist:
* 
* Library Name:  N16_HDSPSB_LEAFCELL
* Top Cell Name: LEAFCELL_TILING
* View Name:     schematic
* Netlisted on:  Oct  2 11:11:16 2014
************************************************************************

*.BIPOLAR
*.CAPA
*.DIOPERI
*.DIOAREA
*.EQUATION
*.SCALE METER
*.PARAM

.SUBCKT ndio_mac PLUS MINUS 
*.PININFO 
.ENDS

*.PIN vss

************************************************************************
* Library Name: N16_HDSPSB_LEAFCELL
* Cell Name:    DIODE
* View Name:    schematic
************************************************************************

.SUBCKT S1CSLVTSW400W90_DIODE TSMC_1 TSMC_2 VSS 
*.PININFO  TSMC_1:I TSMC_2:B VSS:B 
MMDIODE TSMC_1 TSMC_2 TSMC_1 VSS nch_lvt_mac l=20n nfin=2 m=1 
.ENDS

************************************************************************
* Library Name: simLib

* View Name:    schematic
************************************************************************



************************************************************************
* Library Name: N16_HDSPSB_LEAFCELL
* Cell Name:    XDRV_LA512_884_SB
* View Name:    schematic
************************************************************************

.SUBCKT S1CSLVTSW400W90_XDRV_LA512_884_SB TSMC_1 TSMC_2 TSMC_3 TSMC_4 TSMC_5 
+ TSMC_6 TSMC_7 TSMC_8 TSMC_9 TSMC_10 TSMC_11 TSMC_12 TSMC_13 TSMC_14 TSMC_15 
+ TSMC_16 TSMC_17 TSMC_18 TSMC_19 TSMC_20 TSMC_21 TSMC_22 TSMC_23 TSMC_24 
+ TSMC_25 TSMC_26 TSMC_27 TSMC_28 TSMC_29 TSMC_30 TSMC_31 
*.PININFO  TSMC_30:I TSMC_31:I TSMC_22:O TSMC_23:O TSMC_24:O TSMC_25:O 
*.PININFO  TSMC_26:O TSMC_27:O TSMC_28:O TSMC_29:O TSMC_1:B 
*.PININFO  TSMC_2:B TSMC_3:B TSMC_4:B TSMC_5:B TSMC_6:B 
*.PININFO  TSMC_7:B TSMC_8:B TSMC_9:B TSMC_10:B TSMC_11:B 
*.PININFO  TSMC_12:B TSMC_13:B TSMC_14:B TSMC_15:B TSMC_16:B 
*.PININFO  TSMC_17:B TSMC_18:B TSMC_19:B TSMC_20:B TSMC_21:B 
MM37 TSMC_28 TSMC_32 TSMC_20 TSMC_20 pch_svt_mac l=20n nfin=8 m=8 
MM36 TSMC_32 TSMC_30 TSMC_20 TSMC_20 pch_lvt_mac l=20n nfin=7 m=1 
MM35 TSMC_24 TSMC_32 TSMC_20 TSMC_20 pch_svt_mac l=20n nfin=8 m=8 
MM34 TSMC_32 TSMC_33 TSMC_20 TSMC_20 pch_lvt_mac l=20n nfin=7 m=1 
MM33 TSMC_33 TSMC_3 TSMC_34 TSMC_20 pch_lvt_mac l=20n nfin=7 m=1 
MM21 TSMC_29 TSMC_35 TSMC_20 TSMC_20 pch_svt_mac l=20n nfin=8 m=8 
MM16 TSMC_35 TSMC_30 TSMC_20 TSMC_20 pch_lvt_mac l=20n nfin=7 m=1 
MM13 TSMC_25 TSMC_35 TSMC_20 TSMC_20 pch_svt_mac l=20n nfin=8 m=8 
MM11 TSMC_35 TSMC_36 TSMC_20 TSMC_20 pch_lvt_mac l=20n nfin=7 m=1 
MM10 TSMC_36 TSMC_4 TSMC_34 TSMC_20 pch_lvt_mac l=20n nfin=7 m=1 
MM3 TSMC_27 TSMC_37 TSMC_20 TSMC_20 pch_svt_mac l=20n nfin=8 m=8 
MM2 TSMC_26 TSMC_38 TSMC_20 TSMC_20 pch_svt_mac l=20n nfin=8 m=8 
MM23 TSMC_23 TSMC_37 TSMC_20 TSMC_20 pch_svt_mac l=20n nfin=8 m=8 
MM20 TSMC_22 TSMC_38 TSMC_20 TSMC_20 pch_svt_mac l=20n nfin=8 m=8 
MM28 TSMC_37 TSMC_30 TSMC_20 TSMC_20 pch_lvt_mac l=20n nfin=7 m=1 
MM27 TSMC_38 TSMC_30 TSMC_20 TSMC_20 pch_lvt_mac l=20n nfin=7 m=1 
MM26 TSMC_37 TSMC_39 TSMC_20 TSMC_20 pch_lvt_mac l=20n nfin=7 m=1 
MM18 TSMC_38 TSMC_40 TSMC_20 TSMC_20 pch_lvt_mac l=20n nfin=7 m=1 
MM12 TSMC_39 TSMC_2 TSMC_34 TSMC_20 pch_lvt_mac l=20n nfin=7 m=1 
MP6 TSMC_40 TSMC_1 TSMC_34 TSMC_20 pch_lvt_mac l=20n nfin=7 m=1 
MM39 TSMC_34 TSMC_9 TSMC_20 TSMC_20 pch_lvt_mac l=20n nfin=7 m=4 
MM32 TSMC_28 TSMC_32 TSMC_21 TSMC_21 nch_lvt_mac l=20n nfin=10 m=4 
MM31 TSMC_24 TSMC_32 TSMC_21 TSMC_21 nch_lvt_mac l=20n nfin=10 m=4 
MM30 TSMC_32 TSMC_33 TSMC_31 TSMC_21 nch_lvt_mac l=20n nfin=12 m=1 
MM29 TSMC_33 TSMC_9 TSMC_21 TSMC_21 nch_lvt_mac l=20n nfin=3 m=1 
MM22 TSMC_33 TSMC_3 TSMC_21 TSMC_21 nch_lvt_mac l=20n nfin=3 m=1 
MM9 TSMC_29 TSMC_35 TSMC_21 TSMC_21 nch_lvt_mac l=20n nfin=10 m=4 
MM8 TSMC_25 TSMC_35 TSMC_21 TSMC_21 nch_lvt_mac l=20n nfin=10 m=4 
MM7 TSMC_35 TSMC_36 TSMC_31 TSMC_21 nch_lvt_mac l=20n nfin=12 m=1 
MM5 TSMC_36 TSMC_9 TSMC_21 TSMC_21 nch_lvt_mac l=20n nfin=3 m=1 
MM4 TSMC_36 TSMC_4 TSMC_21 TSMC_21 nch_lvt_mac l=20n nfin=3 m=1 
MM1 TSMC_27 TSMC_37 TSMC_21 TSMC_21 nch_lvt_mac l=20n nfin=10 m=4 
MM0 TSMC_26 TSMC_38 TSMC_21 TSMC_21 nch_lvt_mac l=20n nfin=10 m=4 
MM24 TSMC_23 TSMC_37 TSMC_21 TSMC_21 nch_lvt_mac l=20n nfin=10 m=4 
MM19 TSMC_22 TSMC_38 TSMC_21 TSMC_21 nch_lvt_mac l=20n nfin=10 m=4 
MM25 TSMC_37 TSMC_39 TSMC_31 TSMC_21 nch_lvt_mac l=20n nfin=12 m=1 
MM17 TSMC_38 TSMC_40 TSMC_31 TSMC_21 nch_lvt_mac l=20n nfin=12 m=1 
MM14 TSMC_39 TSMC_9 TSMC_21 TSMC_21 nch_lvt_mac l=20n nfin=3 m=1 
MM6 TSMC_40 TSMC_9 TSMC_21 TSMC_21 nch_lvt_mac l=20n nfin=3 m=1 
MM15 TSMC_39 TSMC_2 TSMC_21 TSMC_21 nch_lvt_mac l=20n nfin=3 m=1 
MP9 TSMC_40 TSMC_1 TSMC_21 TSMC_21 nch_lvt_mac l=20n nfin=3 m=1 
.ENDS

************************************************************************
* Library Name: N16_HDSPSB_LEAFCELL
* Cell Name:    BCELL_SD_HD
* View Name:    schematic
************************************************************************

.SUBCKT S1CSLVTSW400W90_BCELL_SD_HD TSMC_1 TSMC_2 VDDAI TSMC_3 TSMC_4 TSMC_5 
*.PININFO  TSMC_1:B TSMC_2:B VDDAI:B TSMC_3:B TSMC_4:B TSMC_5:B 
MM5 TSMC_2 TSMC_5 TSMC_6 TSMC_4 nchpg_hdsr_mac l=20n nfin=1 m=1 
MM0 TSMC_1 TSMC_5 TSMC_7 TSMC_4 nchpg_hdsr_mac l=20n nfin=1 m=1 
MM2 TSMC_6 TSMC_7 TSMC_4 TSMC_4 nchpd_hdsr_mac l=20n nfin=1 m=1 
MM1 TSMC_7 TSMC_6 TSMC_4 TSMC_4 nchpd_hdsr_mac l=20n nfin=1 m=1 
MM6 TSMC_7 TSMC_6 VDDAI TSMC_3 pchpu_hdsr_mac l=20n nfin=1 m=1 
MM4 TSMC_6 TSMC_7 VDDAI TSMC_3 pchpu_hdsr_mac l=20n nfin=1 m=1 
.ENDS

************************************************************************
* Library Name: N16_HDSPSB_LEAFCELL
* Cell Name:    MCB_2X4_SD_HD
* View Name:    schematic
************************************************************************

.SUBCKT S1CSLVTSW400W90_MCB_2X4_SD_HD TSMC_1 TSMC_2 TSMC_3 TSMC_4 TSMC_5 TSMC_6 
+ TSMC_7 TSMC_8 TSMC_9 TSMC_10 TSMC_11 TSMC_12 TSMC_13 TSMC_14 TSMC_15 TSMC_16 
*.PININFO  TSMC_1:B TSMC_2:B TSMC_3:B TSMC_4:B TSMC_5:B TSMC_6:B TSMC_7:B 
*.PININFO  TSMC_8:B 
*.PININFO  TSMC_9:B TSMC_10:B TSMC_11:B TSMC_12:B TSMC_13:B TSMC_14:B TSMC_15:B 
*.PININFO  TSMC_16:B 
XMCB_0[0] TSMC_1 TSMC_5 TSMC_9 TSMC_13 TSMC_14 TSMC_15 
+ S1CSLVTSW400W90_BCELL_SD_HD 
XMCB_0[1] TSMC_2 TSMC_6 TSMC_10 TSMC_13 TSMC_14 TSMC_15 
+ S1CSLVTSW400W90_BCELL_SD_HD 
XMCB_0[2] TSMC_3 TSMC_7 TSMC_11 TSMC_13 TSMC_14 TSMC_15 
+ S1CSLVTSW400W90_BCELL_SD_HD 
XMCB_0[3] TSMC_4 TSMC_8 TSMC_12 TSMC_13 TSMC_14 TSMC_15 
+ S1CSLVTSW400W90_BCELL_SD_HD 
XMCB_1[0] TSMC_1 TSMC_5 TSMC_9 TSMC_13 TSMC_14 TSMC_16 
+ S1CSLVTSW400W90_BCELL_SD_HD 
XMCB_1[1] TSMC_2 TSMC_6 TSMC_10 TSMC_13 TSMC_14 TSMC_16 
+ S1CSLVTSW400W90_BCELL_SD_HD 
XMCB_1[2] TSMC_3 TSMC_7 TSMC_11 TSMC_13 TSMC_14 TSMC_16 
+ S1CSLVTSW400W90_BCELL_SD_HD 
XMCB_1[3] TSMC_4 TSMC_8 TSMC_12 TSMC_13 TSMC_14 TSMC_16 
+ S1CSLVTSW400W90_BCELL_SD_HD 
.ENDS

************************************************************************
* Library Name: tsmcN16
* Cell Name:    inv_lvt_mac_pcell_0
* View Name:    schematic
************************************************************************

.SUBCKT S1CSLVTSW400W90_inv_lvt_mac_pcell_0 TSMC_1 TSMC_2 TSMC_3 TSMC_4 TSMC_5 
+ TSMC_6 
*.PININFO  TSMC_1:I TSMC_2:I TSMC_3:I TSMC_5:I TSMC_6:I TSMC_4:O 
MM1 TSMC_4 TSMC_3 TSMC_5 TSMC_6 pch_lvt_mac l=p_l nfin=p_nfin m=p_totalM 
MM2 TSMC_4 TSMC_3 TSMC_1 TSMC_2 nch_lvt_mac l=n_l nfin=n_nfin m=n_totalM 
.ENDS

************************************************************************
* Library Name: tsmcN16
* Cell Name:    inv_svt_mac_pcell_0
* View Name:    schematic
************************************************************************

.SUBCKT S1CSLVTSW400W90_inv_svt_mac_pcell_0 TSMC_1 TSMC_2 TSMC_3 TSMC_4 TSMC_5 
+ TSMC_6 
*.PININFO  TSMC_1:I TSMC_2:I TSMC_3:I TSMC_5:I TSMC_6:I TSMC_4:O 
MM1 TSMC_4 TSMC_3 TSMC_5 TSMC_6 pch_svt_mac l=p_l nfin=p_nfin m=p_totalM 
MM2 TSMC_4 TSMC_3 TSMC_1 TSMC_2 nch_svt_mac l=n_l nfin=n_nfin m=n_totalM 
.ENDS

************************************************************************
* Library Name: tsmcN16
* Cell Name:    nand2_lvt_mac_pcell_1
* View Name:    schematic
************************************************************************

.SUBCKT S1CSLVTSW400W90_nand2_lvt_mac_pcell_1 TSMC_1 TSMC_2 TSMC_3 TSMC_4 
+ TSMC_5 TSMC_6 TSMC_7 
*.PININFO  TSMC_1:I TSMC_2:I TSMC_3:I TSMC_4:I TSMC_5:I TSMC_6:I TSMC_7:O 
MM2 TSMC_7 TSMC_2 TSMC_5 TSMC_6 pch_lvt_mac l=p_l nfin=p_nfin m=p_totalM 
MM1 TSMC_7 TSMC_1 TSMC_5 TSMC_6 pch_lvt_mac l=p_l nfin=p_nfin m=p_totalM 
MM4 TSMC_8 TSMC_2 TSMC_3 TSMC_4 nch_lvt_mac l=n_l nfin=n_nfin m=n_totalM 
MM3 TSMC_7 TSMC_1 TSMC_8 TSMC_4 nch_lvt_mac l=n_l nfin=n_nfin m=n_totalM 
.ENDS

************************************************************************
* Library Name: tsmcN16
* Cell Name:    nand2_svt_mac_pcell_1
* View Name:    schematic
************************************************************************

.SUBCKT S1CSLVTSW400W90_nand2_svt_mac_pcell_1 TSMC_1 TSMC_2 TSMC_3 TSMC_4 
+ TSMC_5 TSMC_6 TSMC_7 
*.PININFO  TSMC_1:I TSMC_2:I TSMC_3:I TSMC_4:I TSMC_5:I TSMC_6:I TSMC_7:O 
MM2 TSMC_7 TSMC_2 TSMC_5 TSMC_6 pch_svt_mac l=p_l nfin=p_nfin m=p_totalM 
MM1 TSMC_7 TSMC_1 TSMC_5 TSMC_6 pch_svt_mac l=p_l nfin=p_nfin m=p_totalM 
MM4 TSMC_8 TSMC_2 TSMC_3 TSMC_4 nch_svt_mac l=n_l nfin=n_nfin m=n_totalM 
MM3 TSMC_7 TSMC_1 TSMC_8 TSMC_4 nch_svt_mac l=n_l nfin=n_nfin m=n_totalM 
.ENDS

************************************************************************
* Library Name: tsmcN16
* Cell Name:    nand3_lvt_mac_pcell_2
* View Name:    schematic
************************************************************************

.SUBCKT S1CSLVTSW400W90_nand3_lvt_mac_pcell_2 TSMC_1 TSMC_2 TSMC_3 TSMC_4 
+ TSMC_5 TSMC_6 TSMC_7 TSMC_8 
*.PININFO  TSMC_1:I TSMC_2:I TSMC_3:I TSMC_4:I TSMC_5:I TSMC_6:I TSMC_7:I 
*.PININFO  TSMC_8:O 
MM3 TSMC_8 TSMC_3 TSMC_6 TSMC_7 pch_lvt_mac l=p_l nfin=p_nfin m=p_totalM 
MM2 TSMC_8 TSMC_2 TSMC_6 TSMC_7 pch_lvt_mac l=p_l nfin=p_nfin m=p_totalM 
MM1 TSMC_8 TSMC_1 TSMC_6 TSMC_7 pch_lvt_mac l=p_l nfin=p_nfin m=p_totalM 
MM6 TSMC_9 TSMC_3 TSMC_4 TSMC_5 nch_lvt_mac l=n_l nfin=n_nfin 
+ m=n_totalM 
MM5 TSMC_10 TSMC_2 TSMC_9 TSMC_5 nch_lvt_mac l=n_l nfin=n_nfin 
+ m=n_totalM 
MM4 TSMC_8 TSMC_1 TSMC_10 TSMC_5 nch_lvt_mac l=n_l nfin=n_nfin 
+ m=n_totalM 
.ENDS

************************************************************************
* Library Name: N16_HDSPSB_LEAFCELL
* Cell Name:    WEBBUF_SB_BASE
* View Name:    schematic
************************************************************************

.SUBCKT S1CSLVTSW400W90_WEBBUF_SB_BASE TSMC_1 TSMC_2 VDDHD TSMC_3 TSMC_4 TSMC_5 
+ TSMC_6 TSMC_7 
*.PININFO  TSMC_1:I TSMC_2:I TSMC_5:I TSMC_6:O TSMC_7:O VDDHD:B TSMC_3:B 
*.PININFO  TSMC_4:B 
MM36 TSMC_8 TSMC_9 TSMC_4 TSMC_4 nch_lvt_mac l=20n nfin=3 m=1 
MM35 TSMC_10 TSMC_2 TSMC_8 TSMC_4 nch_lvt_mac l=20n nfin=3 m=1 
MM31 TSMC_11 TSMC_1 TSMC_4 TSMC_4 nch_lvt_mac l=20n nfin=5 m=2 
MM30 TSMC_10 TSMC_5 TSMC_11 TSMC_4 nch_lvt_mac l=20n nfin=5 m=1 
MM34 TSMC_12 TSMC_9 VDDHD TSMC_3 pch_lvt_mac l=20n nfin=3 m=1 
MM33 TSMC_10 TSMC_1 TSMC_12 TSMC_3 pch_lvt_mac l=20n nfin=3 m=1 
MM6 TSMC_10 TSMC_5 TSMC_13 TSMC_3 pch_lvt_mac l=20n nfin=5 m=1 
MM32 TSMC_13 TSMC_2 VDDHD TSMC_3 pch_lvt_mac l=20n nfin=5 m=2 
XI25 TSMC_4 TSMC_4 TSMC_10 TSMC_9 VDDHD TSMC_3 
+ S1CSLVTSW400W90_inv_lvt_mac_pcell_0 n_totalM=1 n_nfin=3 n_l=20n p_totalM=1 
+ p_nfin=3 p_l=20n 
XI32 TSMC_4 TSMC_4 TSMC_10 TSMC_7 VDDHD TSMC_3 
+ S1CSLVTSW400W90_inv_lvt_mac_pcell_0 n_totalM=2 n_nfin=4 n_l=20n p_totalM=2 
+ p_nfin=7 p_l=20n 
XI33 TSMC_4 TSMC_4 TSMC_7 TSMC_6 VDDHD TSMC_3 
+ S1CSLVTSW400W90_inv_lvt_mac_pcell_0 n_totalM=1 n_nfin=4 n_l=20n p_totalM=1 
+ p_nfin=7 p_l=20n 
.ENDS

************************************************************************
* Library Name: N16_HDSPSB_LEAFCELL
* Cell Name:    RESETD_TSEL
* View Name:    schematic
************************************************************************

.SUBCKT S1CSLVTSW400W90_RESETD_TSEL TSMC_1 TSMC_2 TSMC_3 VDDHD TSMC_4 TSMC_5 
+ TSMC_6 TSMC_7 
*.PININFO  TSMC_1:I TSMC_2:I TSMC_3:I TSMC_6:O TSMC_7:O VDDHD:B TSMC_4:B 
*.PININFO  TSMC_5:B 
MM15 TSMC_8 TSMC_1 TSMC_9 TSMC_4 pch_svt_mac l=20n nfin=3 m=1 
MM14 TSMC_9 TSMC_1 VDDHD TSMC_4 pch_svt_mac l=20n nfin=3 m=1 
MM25 TSMC_6 TSMC_2 VDDHD TSMC_4 pch_lvt_mac l=20n nfin=3 m=1 
MM23 TSMC_6 TSMC_10 VDDHD TSMC_4 pch_lvt_mac l=20n nfin=3 m=1 
MM18 TSMC_8 TSMC_1 TSMC_11 TSMC_5 nch_svt_mac l=20n nfin=3 m=1 
MM19 TSMC_11 TSMC_1 TSMC_5 TSMC_5 nch_svt_mac l=20n nfin=3 m=1 
MM24 TSMC_12 TSMC_10 TSMC_5 TSMC_5 nch_lvt_mac l=20n nfin=3 m=1 
MM21 TSMC_6 TSMC_2 TSMC_12 TSMC_5 nch_lvt_mac l=20n nfin=3 m=1 
XI737 TSMC_5 TSMC_5 TSMC_13 TSMC_7 VDDHD TSMC_4 
+ S1CSLVTSW400W90_inv_svt_mac_pcell_0 n_totalM=1 n_nfin=3 n_l=20n p_totalM=1 
+ p_nfin=3 p_l=20n 
XI736 TSMC_5 TSMC_5 TSMC_14 TSMC_13 VDDHD TSMC_4 
+ S1CSLVTSW400W90_inv_svt_mac_pcell_0 n_totalM=1 n_nfin=3 n_l=20n p_totalM=1 
+ p_nfin=3 p_l=20n 
XND0 TSMC_1 TSMC_7 TSMC_5 TSMC_5 VDDHD TSMC_4 TSMC_10 
+ S1CSLVTSW400W90_nand2_lvt_mac_pcell_1 n_totalM=1 n_nfin=3 n_l=20n p_totalM=1 
+ p_nfin=3 p_l=20n 
XI91 TSMC_3 TSMC_8 TSMC_5 TSMC_5 VDDHD TSMC_4 TSMC_14 
+ S1CSLVTSW400W90_nand2_svt_mac_pcell_1 n_totalM=1 n_nfin=3 n_l=20n p_totalM=1 
+ p_nfin=3 p_l=20n 
.ENDS

************************************************************************
* Library Name: N16_HDSPSB_LEAFCELL
* Cell Name:    RESETD_WTSEL_SB_NEW
* View Name:    schematic
************************************************************************

.SUBCKT S1CSLVTSW400W90_RESETD_WTSEL_SB_NEW TSMC_1 TSMC_2 VDDHD TSMC_3 TSMC_4 
+ TSMC_5 TSMC_6 
*.PININFO  TSMC_1:I TSMC_5:I TSMC_6:I TSMC_2:O VDDHD:B TSMC_3:B TSMC_4:B 
XI87 TSMC_7 TSMC_8 TSMC_4 TSMC_4 VDDHD TSMC_3 TSMC_9 
+ S1CSLVTSW400W90_nand2_lvt_mac_pcell_1 n_totalM=1 n_nfin=3 n_l=20n p_totalM=1 
+ p_nfin=3 p_l=20n 
XND5 TSMC_6 TSMC_10 TSMC_4 TSMC_4 VDDHD TSMC_3 TSMC_7 
+ S1CSLVTSW400W90_nand2_lvt_mac_pcell_1 n_totalM=1 n_nfin=3 n_l=20n p_totalM=1 
+ p_nfin=3 p_l=20n 
XI84 TSMC_5 TSMC_11 TSMC_4 TSMC_4 VDDHD TSMC_3 TSMC_8 
+ S1CSLVTSW400W90_nand2_lvt_mac_pcell_1 n_totalM=1 n_nfin=3 n_l=20n p_totalM=1 
+ p_nfin=3 p_l=20n 
XND0 TSMC_7 TSMC_1 TSMC_4 TSMC_4 VDDHD TSMC_3 TSMC_11 
+ S1CSLVTSW400W90_nand2_lvt_mac_pcell_1 n_totalM=1 n_nfin=3 n_l=20n p_totalM=1 
+ p_nfin=3 p_l=20n 
XI89 TSMC_4 TSMC_4 TSMC_9 TSMC_2 VDDHD TSMC_3 
+ S1CSLVTSW400W90_inv_lvt_mac_pcell_0 n_totalM=1 n_nfin=3 n_l=20n p_totalM=1 
+ p_nfin=3 p_l=20n 
XI65 TSMC_4 TSMC_4 TSMC_12 TSMC_13 VDDHD TSMC_3 
+ S1CSLVTSW400W90_inv_lvt_mac_pcell_0 n_totalM=1 n_nfin=3 n_l=20n p_totalM=1 
+ p_nfin=3 p_l=20n 
XI83 TSMC_4 TSMC_4 TSMC_13 TSMC_10 VDDHD TSMC_3 
+ S1CSLVTSW400W90_inv_lvt_mac_pcell_0 n_totalM=1 n_nfin=3 n_l=20n p_totalM=1 
+ p_nfin=3 p_l=20n 
XI64 TSMC_4 TSMC_4 TSMC_1 TSMC_12 VDDHD TSMC_3 
+ S1CSLVTSW400W90_inv_lvt_mac_pcell_0 n_totalM=1 n_nfin=3 n_l=20n p_totalM=1 
+ p_nfin=3 p_l=20n 
.ENDS

************************************************************************
* Library Name: N16_HDSPSB_LEAFCELL
* Cell Name:    DECB1_SB
* View Name:    schematic
************************************************************************

.SUBCKT S1CSLVTSW400W90_DECB1_SB TSMC_1 TSMC_2 TSMC_3 TSMC_4 TSMC_5 TSMC_6 
+ TSMC_7 VDDHD TSMC_8 TSMC_9 
*.PININFO  TSMC_1:I TSMC_2:I TSMC_4:I TSMC_5:I TSMC_6:I TSMC_7:I TSMC_3:O 
*.PININFO  VDDHD:B TSMC_8:B TSMC_9:B 
MTN1 TSMC_10 TSMC_1 TSMC_11 TSMC_9 nch_lvt_mac l=20n nfin=3 m=1 
MTN2 TSMC_11 TSMC_7 TSMC_5 TSMC_9 nch_lvt_mac l=20n nfin=7 m=2 
MM0 TSMC_10 TSMC_2 TSMC_11 TSMC_9 nch_lvt_mac l=20n nfin=7 m=2 
MN0 TSMC_3 TSMC_10 TSMC_9 TSMC_9 nch_lvt_mac l=20n nfin=8 m=4 
MM1 TSMC_12 TSMC_2 VDDHD TSMC_8 pch_lvt_mac l=20n nfin=3 m=1 
MM3 TSMC_10 TSMC_7 VDDHD TSMC_8 pch_lvt_mac l=20n nfin=3 m=1 
MP0 TSMC_3 TSMC_10 VDDHD TSMC_8 pch_lvt_mac l=20n nfin=8 m=6 
MP5 TSMC_10 TSMC_4 VDDHD TSMC_8 pch_lvt_mac l=20n nfin=3 m=2 
MM2 TSMC_10 TSMC_1 TSMC_12 TSMC_8 pch_lvt_mac l=20n nfin=3 m=1 
.ENDS

************************************************************************
* Library Name: N16_HDSPSB_LEAFCELL
* Cell Name:    DECB1_BLEQ_SB_M4
* View Name:    schematic
************************************************************************

.SUBCKT S1CSLVTSW400W90_DECB1_BLEQ_SB_M4 TSMC_1 TSMC_2 TSMC_3 TSMC_4 TSMC_5 
+ TSMC_6 VDDHD TSMC_7 TSMC_8 
*.PININFO  TSMC_3:I TSMC_4:I TSMC_5:I TSMC_6:I TSMC_1:O TSMC_2:O VDDHD:B 
*.PININFO  TSMC_7:B TSMC_8:B 
MN0 TSMC_1 TSMC_9 TSMC_8 TSMC_8 nch_lvt_mac l=20n nfin=8 m=4 
MTN1 TSMC_9 TSMC_3 TSMC_6 TSMC_8 nch_lvt_mac l=20n nfin=3 m=1 
MM0 TSMC_9 TSMC_4 TSMC_6 TSMC_8 nch_lvt_mac l=20n nfin=6 m=2 
MM2 TSMC_2 TSMC_9 TSMC_8 TSMC_8 nch_lvt_mac l=20n nfin=8 m=4 
MP0 TSMC_1 TSMC_9 VDDHD TSMC_7 pch_lvt_mac l=20n nfin=8 m=6 
MM4 TSMC_9 TSMC_5 VDDHD TSMC_7 pch_lvt_mac l=20n nfin=3 m=2 
MM3 TSMC_9 TSMC_3 TSMC_10 TSMC_7 pch_lvt_mac l=20n nfin=3 m=1 
MM1 TSMC_10 TSMC_4 VDDHD TSMC_7 pch_lvt_mac l=20n nfin=3 m=1 
MM5 TSMC_2 TSMC_9 VDDHD TSMC_7 pch_lvt_mac l=20n nfin=8 m=6 
.ENDS

************************************************************************
* Library Name: N16_HDSPSB_LEAFCELL
* Cell Name:    DECB1_WLNAD2_SB_X0
* View Name:    schematic
************************************************************************

.SUBCKT S1CSLVTSW400W90_DECB1_WLNAD2_SB_X0 TSMC_1 TSMC_2 TSMC_3 TSMC_4 TSMC_5 
+ TSMC_6 TSMC_7 VDDHD TSMC_8 TSMC_9 
*.PININFO  TSMC_1:I TSMC_2:I TSMC_4:I TSMC_5:I TSMC_6:I TSMC_7:I TSMC_3:O 
*.PININFO  VDDHD:B TSMC_8:B TSMC_9:B 
MM5 TSMC_10 TSMC_11 TSMC_9 TSMC_9 nch_lvt_mac l=20n nfin=6 m=1 
MTN1 TSMC_11 TSMC_1 TSMC_12 TSMC_9 nch_lvt_mac l=20n nfin=3 m=1 
MTN2 TSMC_12 TSMC_7 TSMC_5 TSMC_9 nch_lvt_mac l=20n nfin=6 m=2 
MM0 TSMC_11 TSMC_2 TSMC_12 TSMC_9 nch_lvt_mac l=20n nfin=6 m=2 
MN0 TSMC_3 TSMC_10 TSMC_9 TSMC_9 nch_lvt_mac l=20n nfin=8 m=6 
MM4 TSMC_10 TSMC_11 VDDHD TSMC_8 pch_lvt_mac l=20n nfin=3 m=4 
MM1 TSMC_13 TSMC_2 VDDHD TSMC_8 pch_lvt_mac l=20n nfin=3 m=1 
MM3 TSMC_11 TSMC_7 VDDHD TSMC_8 pch_lvt_mac l=20n nfin=3 m=1 
MP0 TSMC_3 TSMC_10 VDDHD TSMC_8 pch_lvt_mac l=20n nfin=8 m=3 
MP5 TSMC_11 TSMC_4 VDDHD TSMC_8 pch_lvt_mac l=20n nfin=3 m=2 
MM2 TSMC_11 TSMC_1 TSMC_13 TSMC_8 pch_lvt_mac l=20n nfin=3 m=1 
.ENDS

************************************************************************
* Library Name: N16_HDSPSB_LEAFCELL
* Cell Name:    CKBUF_SB
* View Name:    schematic
************************************************************************

.SUBCKT S1CSLVTSW400W90_CKBUF_SB TSMC_1 TSMC_2 TSMC_3 TSMC_4 VDDHD TSMC_5 
+ TSMC_6 
*.PININFO  TSMC_3:I TSMC_4:I TSMC_1:O TSMC_2:O VDDHD:B TSMC_5:B TSMC_6:B 
XINV0 TSMC_6 TSMC_6 TSMC_1 TSMC_2 VDDHD TSMC_5 
+ S1CSLVTSW400W90_inv_lvt_mac_pcell_0 n_totalM=2 n_nfin=7 n_l=20n p_totalM=3 
+ p_nfin=9 p_l=20n 
MM1 TSMC_1 TSMC_3 TSMC_6 TSMC_6 nch_lvt_mac l=20n nfin=3 m=1 
MM34 TSMC_1 TSMC_4 TSMC_6 TSMC_6 nch_lvt_mac l=20n nfin=7 m=2 
MM26 TSMC_7 TSMC_3 VDDHD TSMC_5 pch_lvt_mac l=20n nfin=9 m=2 
MM0 TSMC_1 TSMC_4 TSMC_7 TSMC_5 pch_lvt_mac l=20n nfin=9 m=2 
.ENDS

************************************************************************
* Library Name: N16_HDSPSB_LEAFCELL
* Cell Name:    ABUF_SB_BASE
* View Name:    schematic
************************************************************************

.SUBCKT S1CSLVTSW400W90_ABUF_SB_BASE TSMC_1 TSMC_2 TSMC_3 TSMC_4 TSMC_5 VDDM 
+ VDDMHD TSMC_6 
*.PININFO  TSMC_1:I TSMC_4:I TSMC_5:I TSMC_2:O TSMC_3:O VDDM:B VDDMHD:B 
*.PININFO  TSMC_6:B 
MM15 TSMC_7 TSMC_8 TSMC_6 TSMC_6 nch_lvt_mac l=20n nfin=3 m=1 
MM14 TSMC_3 TSMC_5 TSMC_7 TSMC_6 nch_lvt_mac l=20n nfin=3 m=1 
MM9 TSMC_9 TSMC_4 TSMC_6 TSMC_6 nch_lvt_mac l=20n nfin=4 m=1 
MM8 TSMC_3 TSMC_1 TSMC_9 TSMC_6 nch_lvt_mac l=20n nfin=4 m=1 
MM13 TSMC_10 TSMC_8 VDDMHD VDDM pch_lvt_mac l=20n nfin=3 m=1 
MM12 TSMC_3 TSMC_4 TSMC_10 VDDM pch_lvt_mac l=20n nfin=3 m=1 
MM11 TSMC_3 TSMC_1 TSMC_11 VDDM pch_lvt_mac l=20n nfin=5 m=1 
MM10 TSMC_11 TSMC_5 VDDMHD VDDM pch_lvt_mac l=20n nfin=5 m=2 
XI34 TSMC_6 TSMC_6 TSMC_3 TSMC_8 VDDMHD VDDM 
+ S1CSLVTSW400W90_inv_lvt_mac_pcell_0 n_totalM=1 n_nfin=3 n_l=20n p_totalM=1 
+ p_nfin=3 p_l=20n 
XI35 TSMC_6 TSMC_6 TSMC_3 TSMC_2 VDDMHD VDDM 
+ S1CSLVTSW400W90_inv_lvt_mac_pcell_0 n_totalM=1 n_nfin=4 n_l=20n p_totalM=2 
+ p_nfin=3 p_l=20n 
.ENDS

************************************************************************
* Library Name: tsmcN16
* Cell Name:    nor2_lvt_mac_pcell_4
* View Name:    schematic
************************************************************************

.SUBCKT S1CSLVTSW400W90_nor2_lvt_mac_pcell_4 TSMC_1 TSMC_2 TSMC_3 TSMC_4 TSMC_5 
+ TSMC_6 TSMC_7 
*.PININFO  TSMC_1:I TSMC_2:I TSMC_3:I TSMC_4:I TSMC_5:I TSMC_6:I TSMC_7:O 
MM2 TSMC_7 TSMC_2 TSMC_8 TSMC_6 pch_lvt_mac l=p_l nfin=p_nfin m=p_totalM 
MM1 TSMC_8 TSMC_1 TSMC_5 TSMC_6 pch_lvt_mac l=p_l nfin=p_nfin m=p_totalM 
MM4 TSMC_7 TSMC_2 TSMC_3 TSMC_4 nch_lvt_mac l=n_l nfin=n_nfin m=n_totalM 
MM3 TSMC_7 TSMC_1 TSMC_3 TSMC_4 nch_lvt_mac l=n_l nfin=n_nfin m=n_totalM 
.ENDS

************************************************************************
* Library Name: N16_HDSPSB_LEAFCELL
* Cell Name:    ENBUFB_BASE
* View Name:    schematic
************************************************************************

.SUBCKT S1CSLVTSW400W90_ENBUFB_BASE TSMC_1 TSMC_2 TSMC_3 TSMC_4 TSMC_5 TSMC_6 
+ TSMC_7 TSMC_8 VDDHD TSMC_9 TSMC_10 
*.PININFO  TSMC_1:I TSMC_2:I TSMC_3:I TSMC_8:I TSMC_4:O TSMC_5:O TSMC_6:O 
*.PININFO  TSMC_7:O VDDHD:B TSMC_9:B 
*.PININFO  TSMC_10:B 
XI158 TSMC_11 TSMC_11 TSMC_10 TSMC_10 VDDHD TSMC_9 TSMC_12 
+ S1CSLVTSW400W90_nor2_lvt_mac_pcell_4 n_totalM=1 n_nfin=3 n_l=20n p_totalM=1 
+ p_nfin=3 p_l=20n 
MM19 TSMC_13 TSMC_3 TSMC_9 TSMC_9 pch_lvt_mac l=20n nfin=6 m=1 
MM2 TSMC_14 TSMC_4 TSMC_9 TSMC_9 pch_lvt_mac l=20n nfin=3 m=1 
MM7 TSMC_15 TSMC_8 TSMC_9 TSMC_9 pch_lvt_mac l=20n nfin=5 m=1 
MM16 TSMC_15 TSMC_1 TSMC_13 TSMC_9 pch_lvt_mac l=20n nfin=6 m=1 
MM1 TSMC_15 TSMC_2 TSMC_14 TSMC_9 pch_lvt_mac l=20n nfin=3 m=1 
MM5 TSMC_16 TSMC_8 TSMC_10 TSMC_10 nch_lvt_mac l=20n nfin=3 m=1 
MN200 TSMC_6 TSMC_4 TSMC_10 TSMC_10 nch_lvt_mac l=20n nfin=7 m=2 
MM4 TSMC_17 TSMC_4 TSMC_16 TSMC_10 nch_lvt_mac l=20n nfin=3 m=1 
MM3 TSMC_15 TSMC_3 TSMC_17 TSMC_10 nch_lvt_mac l=20n nfin=3 m=1 
MM20 TSMC_18 TSMC_8 TSMC_10 TSMC_10 nch_lvt_mac l=20n nfin=7 m=1 
MM17 TSMC_15 TSMC_1 TSMC_19 TSMC_10 nch_lvt_mac l=20n nfin=4 m=1 
MM18 TSMC_19 TSMC_2 TSMC_18 TSMC_10 nch_lvt_mac l=20n nfin=4 m=1 
MN300 TSMC_5 TSMC_4 TSMC_10 TSMC_10 nch_lvt_mac l=20n nfin=11 m=6 
XI166 TSMC_10 TSMC_10 TSMC_20 TSMC_11 VDDHD TSMC_9 
+ S1CSLVTSW400W90_inv_lvt_mac_pcell_0 n_totalM=1 n_nfin=3 n_l=20n p_totalM=1 
+ p_nfin=3 p_l=20n 
XI148 TSMC_10 TSMC_10 TSMC_4 TSMC_20 VDDHD TSMC_9 
+ S1CSLVTSW400W90_inv_lvt_mac_pcell_0 n_totalM=1 n_nfin=3 n_l=20n p_totalM=1 
+ p_nfin=3 p_l=20n 
XI152 TSMC_10 TSMC_10 TSMC_21 TSMC_7 VDDHD TSMC_9 
+ S1CSLVTSW400W90_inv_lvt_mac_pcell_0 n_totalM=4 n_nfin=4 n_l=20n p_totalM=4 
+ p_nfin=8 p_l=20n 
XINV5 TSMC_10 TSMC_10 TSMC_4 TSMC_21 TSMC_9 TSMC_9 
+ S1CSLVTSW400W90_inv_lvt_mac_pcell_0 n_totalM=1 n_nfin=3 n_l=20n p_totalM=3 
+ p_nfin=3 p_l=20n 
XINV4 TSMC_10 TSMC_10 TSMC_12 TSMC_22 VDDHD TSMC_9 
+ S1CSLVTSW400W90_inv_lvt_mac_pcell_0 n_totalM=1 n_nfin=3 n_l=20n p_totalM=1 
+ p_nfin=3 p_l=20n 
XI141 TSMC_10 TSMC_10 TSMC_15 TSMC_4 TSMC_9 TSMC_9 
+ S1CSLVTSW400W90_inv_lvt_mac_pcell_0 n_totalM=2 n_nfin=7 n_l=20n p_totalM=3 
+ p_nfin=9 p_l=20n 
.ENDS

************************************************************************
* Library Name: N16_HDSPSB_LEAFCELL
* Cell Name:    DECB4_SB
* View Name:    schematic
************************************************************************

.SUBCKT S1CSLVTSW400W90_DECB4_SB TSMC_1 TSMC_2 TSMC_3 TSMC_4 TSMC_5 TSMC_6 
+ TSMC_7 TSMC_8 TSMC_9 VDDHD TSMC_10 TSMC_11 
*.PININFO  TSMC_1:I TSMC_2:I TSMC_3:I TSMC_4:I TSMC_5:I TSMC_6:O TSMC_7:O 
*.PININFO  TSMC_8:O 
*.PININFO  TSMC_9:O VDDHD:B TSMC_10:B TSMC_11:B 
MM15 TSMC_12 TSMC_4 VDDHD TSMC_10 pch_lvt_mac l=20n nfin=3 m=1 
MM16 TSMC_12 TSMC_2 VDDHD TSMC_10 pch_lvt_mac l=20n nfin=3 m=1 
MM17 TSMC_13 TSMC_4 VDDHD TSMC_10 pch_lvt_mac l=20n nfin=3 m=1 
MM18 TSMC_13 TSMC_1 VDDHD TSMC_10 pch_lvt_mac l=20n nfin=3 m=1 
MM22 TSMC_13 TSMC_5 VDDHD TSMC_10 pch_lvt_mac l=20n nfin=3 m=1 
MM23 TSMC_12 TSMC_5 VDDHD TSMC_10 pch_lvt_mac l=20n nfin=3 m=1 
MM24 TSMC_14 TSMC_5 VDDHD TSMC_10 pch_lvt_mac l=20n nfin=3 m=1 
MM25 TSMC_15 TSMC_5 VDDHD TSMC_10 pch_lvt_mac l=20n nfin=3 m=1 
MM5 TSMC_14 TSMC_3 VDDHD TSMC_10 pch_lvt_mac l=20n nfin=3 m=1 
MM4 TSMC_14 TSMC_2 VDDHD TSMC_10 pch_lvt_mac l=20n nfin=3 m=1 
MM2 TSMC_15 TSMC_3 VDDHD TSMC_10 pch_lvt_mac l=20n nfin=3 m=1 
MM1 TSMC_15 TSMC_1 VDDHD TSMC_10 pch_lvt_mac l=20n nfin=3 m=1 
MM19 TSMC_16 TSMC_4 TSMC_17 TSMC_11 nch_lvt_mac l=20n nfin=3 m=2 
MM20 TSMC_12 TSMC_2 TSMC_16 TSMC_11 nch_lvt_mac l=20n nfin=3 m=1 
MM21 TSMC_13 TSMC_1 TSMC_16 TSMC_11 nch_lvt_mac l=20n nfin=3 m=1 
MM26 TSMC_17 TSMC_5 TSMC_11 TSMC_11 nch_lvt_mac l=20n nfin=3 m=4 
MM8 TSMC_18 TSMC_3 TSMC_17 TSMC_11 nch_lvt_mac l=20n nfin=3 m=2 
MM7 TSMC_14 TSMC_2 TSMC_18 TSMC_11 nch_lvt_mac l=20n nfin=3 m=1 
MM0 TSMC_15 TSMC_1 TSMC_18 TSMC_11 nch_lvt_mac l=20n nfin=3 m=1 
XINV3 TSMC_11 TSMC_11 TSMC_12 TSMC_9 VDDHD TSMC_10 
+ S1CSLVTSW400W90_inv_lvt_mac_pcell_0 n_totalM=1 n_nfin=3 n_l=20n p_totalM=2 
+ p_nfin=3 p_l=20n 
XINV2 TSMC_11 TSMC_11 TSMC_13 TSMC_8 VDDHD TSMC_10 
+ S1CSLVTSW400W90_inv_lvt_mac_pcell_0 n_totalM=1 n_nfin=3 n_l=20n p_totalM=2 
+ p_nfin=3 p_l=20n 
XINV1 TSMC_11 TSMC_11 TSMC_14 TSMC_7 VDDHD TSMC_10 
+ S1CSLVTSW400W90_inv_lvt_mac_pcell_0 n_totalM=1 n_nfin=3 n_l=20n p_totalM=2 
+ p_nfin=3 p_l=20n 
XINV0 TSMC_11 TSMC_11 TSMC_15 TSMC_6 VDDHD TSMC_10 
+ S1CSLVTSW400W90_inv_lvt_mac_pcell_0 n_totalM=1 n_nfin=3 n_l=20n p_totalM=2 
+ p_nfin=3 p_l=20n 
.ENDS

************************************************************************
* Library Name: N16_HDSPSB_LEAFCELL
* Cell Name:    DECB1_WLNAD2_SB_X1
* View Name:    schematic
************************************************************************

.SUBCKT S1CSLVTSW400W90_DECB1_WLNAD2_SB_X1 TSMC_1 TSMC_2 TSMC_3 TSMC_4 TSMC_5 
+ TSMC_6 TSMC_7 VDDHD TSMC_8 TSMC_9 
*.PININFO  TSMC_1:I TSMC_2:I TSMC_4:I TSMC_5:I TSMC_6:I TSMC_7:I TSMC_3:O 
*.PININFO  VDDHD:B TSMC_8:B TSMC_9:B 
MM5 TSMC_10 TSMC_11 TSMC_9 TSMC_9 nch_lvt_mac l=20n nfin=6 m=1 
MTN1 TSMC_11 TSMC_1 TSMC_12 TSMC_9 nch_lvt_mac l=20n nfin=3 m=1 
MTN2 TSMC_12 TSMC_7 TSMC_5 TSMC_9 nch_lvt_mac l=20n nfin=6 m=2 
MM0 TSMC_11 TSMC_2 TSMC_12 TSMC_9 nch_lvt_mac l=20n nfin=6 m=2 
MN0 TSMC_3 TSMC_10 TSMC_9 TSMC_9 nch_lvt_mac l=20n nfin=8 m=6 
MM4 TSMC_10 TSMC_11 VDDHD TSMC_8 pch_lvt_mac l=20n nfin=3 m=4 
MM1 TSMC_13 TSMC_2 VDDHD TSMC_8 pch_lvt_mac l=20n nfin=3 m=1 
MM3 TSMC_11 TSMC_7 VDDHD TSMC_8 pch_lvt_mac l=20n nfin=3 m=1 
MP0 TSMC_3 TSMC_10 VDDHD TSMC_8 pch_lvt_mac l=20n nfin=8 m=3 
MP5 TSMC_11 TSMC_4 VDDHD TSMC_8 pch_lvt_mac l=20n nfin=3 m=2 
MM2 TSMC_11 TSMC_1 TSMC_13 TSMC_8 pch_lvt_mac l=20n nfin=3 m=1 
.ENDS

************************************************************************
* Library Name: N16_HDSPSB_LEAFCELL
* Cell Name:    DECB2_SB
* View Name:    schematic
************************************************************************

.SUBCKT S1CSLVTSW400W90_DECB2_SB TSMC_1 TSMC_2 TSMC_3 TSMC_4 TSMC_5 VDDHD 
+ TSMC_6 TSMC_7 
*.PININFO  TSMC_1:I TSMC_2:I TSMC_3:I TSMC_4:O TSMC_5:O VDDHD:B TSMC_6:B 
*.PININFO  TSMC_7:B 
MM2 TSMC_8 TSMC_3 VDDHD TSMC_6 pch_lvt_mac l=20n nfin=3 m=1 
MM1 TSMC_8 TSMC_1 VDDHD TSMC_6 pch_lvt_mac l=20n nfin=3 m=1 
MM5 TSMC_9 TSMC_3 VDDHD TSMC_6 pch_lvt_mac l=20n nfin=3 m=1 
MM4 TSMC_9 TSMC_2 VDDHD TSMC_6 pch_lvt_mac l=20n nfin=3 m=1 
MM0 TSMC_8 TSMC_1 TSMC_10 TSMC_7 nch_lvt_mac l=20n nfin=3 m=1 
MM7 TSMC_9 TSMC_2 TSMC_10 TSMC_7 nch_lvt_mac l=20n nfin=3 m=1 
MM8 TSMC_10 TSMC_3 TSMC_7 TSMC_7 nch_lvt_mac l=20n nfin=3 m=2 
XINV0 TSMC_7 TSMC_7 TSMC_9 TSMC_5 VDDHD TSMC_6 
+ S1CSLVTSW400W90_inv_lvt_mac_pcell_0 n_totalM=1 n_nfin=3 n_l=20n p_totalM=2 
+ p_nfin=3 p_l=20n 
XINV1 TSMC_7 TSMC_7 TSMC_8 TSMC_4 VDDHD TSMC_6 
+ S1CSLVTSW400W90_inv_lvt_mac_pcell_0 n_totalM=1 n_nfin=3 n_l=20n p_totalM=2 
+ p_nfin=3 p_l=20n 
.ENDS

************************************************************************
* Library Name: N16_HDSPSB_LEAFCELL
* Cell Name:    PRECHARGE_SB_SD
* View Name:    schematic
************************************************************************

.SUBCKT S1CSLVTSW400W90_PRECHARGE_SB_SD TSMC_1 TSMC_2 TSMC_3 VDDAI TSMC_4 
*.PININFO  TSMC_3:I TSMC_1:B TSMC_2:B VDDAI:B TSMC_4:B 
MMPBLPRE VDDAI TSMC_3 TSMC_1 TSMC_4 pch_lvt_mac l=20n nfin=5 m=2 
MMPBLEQ TSMC_1 TSMC_3 TSMC_2 TSMC_4 pch_lvt_mac l=20n nfin=5 m=1 
MMPBLBPRE TSMC_2 TSMC_3 VDDAI TSMC_4 pch_lvt_mac l=20n nfin=5 m=2 
.ENDS

************************************************************************
* Library Name: N16_HDSPSB_LEAFCELL
* Cell Name:    MIO_M4_SB_NBL_S
* View Name:    schematic
************************************************************************

.SUBCKT S1CSLVTSW400W90_MIO_M4_SB_NBL_S TSMC_1 TSMC_2 TSMC_3 TSMC_4 TSMC_5 
+ TSMC_6 VDDM VDDMHD TSMC_7 
*.PININFO  TSMC_2:I TSMC_3:I TSMC_4:I TSMC_5:I TSMC_1:B 
*.PININFO  TSMC_6:B VDDM:B VDDMHD:B TSMC_7:B 
MM12 TSMC_8 TSMC_6 TSMC_8 VDDM pch_lvt_mac l=20n nfin=11 m=4 
MM13 TSMC_9 TSMC_6 TSMC_9 VDDM pch_lvt_mac l=20n nfin=10 m=5 
MM14 TSMC_9 TSMC_6 TSMC_9 VDDM pch_lvt_mac l=20n nfin=10 m=4 
MM11 TSMC_8 TSMC_6 TSMC_8 VDDM pch_lvt_mac l=20n nfin=11 m=5 
MN34 TSMC_6 TSMC_10 TSMC_7 TSMC_7 nch_lvt_mac l=20n nfin=12 m=3 
MN33 TSMC_6 TSMC_10 TSMC_7 TSMC_7 nch_lvt_mac l=20n nfin=12 m=3 
XI8 TSMC_7 TSMC_7 TSMC_11 TSMC_8 VDDMHD VDDM 
+ S1CSLVTSW400W90_inv_lvt_mac_pcell_0 n_totalM=2 n_nfin=5 n_l=20n p_totalM=2 
+ p_nfin=5 p_l=20n 
XI16 TSMC_7 TSMC_7 TSMC_12 TSMC_10 VDDM VDDM 
+ S1CSLVTSW400W90_inv_lvt_mac_pcell_0 n_totalM=1 n_nfin=5 n_l=20n p_totalM=1 
+ p_nfin=5 p_l=20n 
XI1 TSMC_7 TSMC_7 TSMC_13 TSMC_14 VDDM VDDM 
+ S1CSLVTSW400W90_inv_lvt_mac_pcell_0 n_totalM=1 n_nfin=4 n_l=20n p_totalM=1 
+ p_nfin=4 p_l=20n 
XI7 TSMC_7 TSMC_7 TSMC_14 TSMC_11 VDDMHD VDDM 
+ S1CSLVTSW400W90_inv_lvt_mac_pcell_0 n_totalM=1 n_nfin=2 n_l=20n p_totalM=1 
+ p_nfin=2 p_l=20n 
XI17 TSMC_7 TSMC_7 TSMC_14 TSMC_12 VDDMHD VDDM 
+ S1CSLVTSW400W90_inv_lvt_mac_pcell_0 n_totalM=1 n_nfin=4 n_l=20n p_totalM=1 
+ p_nfin=4 p_l=20n 
XI11 TSMC_7 TSMC_7 TSMC_14 TSMC_15 VDDMHD VDDM 